7
12 5
6 13
4 1
43 14
21 3
17 2
8 25
barna
berna
birna
#
#
borna
#
#
burna
#
#
2 50
7 23
// bucle
escribir_barco
ls
burna
3
6 3 7
4 7 3
5 1 1
barna
2
1 3 5
3 3 2
#
leer_inventarios
berna
0
birna
1
7 1 1
#
li bruna
2
2 4 5
4 2 2
leer_inventario borna
2
2 4 5
4 2 2
eb
modificar_barco
20 10
3 5
modificar_barco
3 5
12 3
modificar_barco 
15 10
20 5
modificar_barco
3 10
3 4
eb
mb
6 10
2 12
eb
consultar_num
agregar_productos
2
1 2
3 4
ap
1
5 6
cn
escribir_producto 11
ep 10
escribir_ciudad bruna
escribir_ciudad barna
escribir_ciudad burna
ec borna
poner_prod bruna 11 3 3
poner_prod borna 11 3 3
poner_prod bruna 10 3 3
poner_prod borna 2 10 10
pp borna 7 200 200
ec borna
modificar_prod bruna 11 3 3
modificar_prod borna 11 3 3
modificar_prod borna 3 4 5
mp borna 4 1 9
ec borna
quitar_prod bruna 11
quitar_prod borna 11
quitar_prod bruna 3
quitar_prod borna 6
qp borna 7
ec borna
consultar_prod bruna 11
consultar_prod borna 11
consultar_prod bruna 3
consultar_prod borna 6
cp borna 2
ec borna
fin
